[TITLE]
SCAU-UFM minimal SWMM coupling case (metric, dynamic wave)

[OPTIONS]
FLOW_UNITS           CMS
INFILTRATION         HORTON
FLOW_ROUTING         DYNWAVE
START_DATE           01/01/2026
START_TIME           00:00:00
REPORT_START_DATE    01/01/2026
REPORT_START_TIME    00:00:00
END_DATE             01/01/2026
END_TIME             01:00:00
REPORT_STEP          00:05:00
WET_STEP             00:01:00
DRY_STEP             00:05:00
ROUTING_STEP         5
ALLOW_PONDING        NO
INERTIAL_DAMPING     PARTIAL
VARIABLE_STEP        0.75
LENGTHENING_STEP     0
MIN_SURFAREA         1.167
NORMAL_FLOW_LIMITED  BOTH
SKIP_STEADY_STATE    NO
LINK_OFFSETS         DEPTH
MIN_SLOPE            0

[JUNCTIONS]
;;Name  Elev  MaxDepth  InitDepth  SurDepth  Aponded
J1      1.0   3.0       0          0         0
J2      0.5   3.0       0          0         0

[OUTFALLS]
;;Name  Elev  Type  StageData  Gated
O1      0.0   FREE             NO

[CONDUITS]
;;Name  From  To  Length  Roughness  InOffset  OutOffset  InitFlow  MaxFlow
C1      J1    J2  100     0.013      0         0          0         0
C2      J2    O1  100     0.013      0         0          0         0

[XSECTIONS]
;;Link  Shape     Geom1  Geom2  Geom3  Geom4  Barrels
C1      CIRCULAR  1.0    0      0      0      1
C2      CIRCULAR  1.0    0      0      0      1

[REPORT]
INPUT      NO
CONTROLS   NO
SUBCATCHMENTS NONE
NODES      NONE
LINKS      NONE
